Version 4.1
SHEET 1 880 680
WIRE 112 80 48 80
WIRE 304 80 192 80
WIRE 368 80 304 80
WIRE 304 144 304 80
WIRE 304 144 240 144
WIRE 368 144 304 144
WIRE 240 176 240 144
WIRE 368 176 368 144
WIRE 240 288 240 256
WIRE 304 288 240 288
WIRE 368 288 368 240
WIRE 368 288 304 288
WIRE 48 304 48 80
FLAG 48 384 0
FLAG 304 288 0
FLAG 368 80 V_O
SYMBOL voltage 48 288 R0
WINDOW 123 0 0 Left 0
WINDOW 39 0 0 Left 0
SYMATTR InstName V1
SYMATTR Value SINE(0 0.707 10)
SYMBOL res 208 64 R90
WINDOW 0 0 56 VBottom 2
WINDOW 3 32 56 VTop 2
SYMATTR InstName R1
SYMATTR Value 5.6k
SYMBOL ind 224 160 R0
SYMATTR InstName L1
SYMATTR Value 1m
SYMBOL cap 352 176 R0
SYMATTR InstName C1
SYMATTR Value 10n
TEXT 8 408 Left 2 !.tran 1
