Version 4.1
SHEET 1 880 680
WIRE 160 -32 80 -32
WIRE 352 -32 240 -32
WIRE 400 -32 352 -32
WIRE 352 32 352 -32
WIRE 80 128 80 -32
WIRE 352 208 352 112
FLAG 80 208 0
FLAG 352 208 0
FLAG 400 -32 V_O
SYMBOL voltage 80 112 R0
WINDOW 123 0 0 Left 0
WINDOW 39 0 0 Left 0
SYMATTR InstName V1
SYMATTR Value SINE(0 0.707 10)
SYMBOL res 256 -48 R90
WINDOW 0 0 56 VBottom 2
WINDOW 3 32 56 VTop 2
SYMATTR InstName R1
SYMATTR Value 1k
SYMBOL ind 336 16 R0
SYMATTR InstName L1
SYMATTR Value 1m
TEXT 40 232 Left 2 !.tran 1
