Version 4.1
SHEET 1 880 680
WIRE 160 -48 64 -48
WIRE 336 -48 224 -48
WIRE 384 -48 336 -48
WIRE 336 32 336 -48
WIRE 64 112 64 -48
WIRE 336 192 336 112
FLAG 64 192 0
FLAG 336 192 0
FLAG 384 -48 V_O
SYMBOL voltage 64 96 R0
WINDOW 123 0 0 Left 0
WINDOW 39 0 0 Left 0
SYMATTR InstName V1
SYMATTR Value SINE(0 0.707 10)
SYMBOL cap 224 -64 R90
WINDOW 0 0 32 VBottom 2
WINDOW 3 32 32 VTop 2
SYMATTR InstName C1
SYMATTR Value 1n
SYMBOL res 320 16 R0
SYMATTR InstName R1
SYMATTR Value 1k
TEXT 24 216 Left 2 !.tran 1
