Version 4.1
SHEET 1 880 680
WIRE 112 -64 -48 -64
WIRE 416 -64 192 -64
WIRE 560 -64 416 -64
WIRE 416 48 416 -64
WIRE -48 224 -48 -64
WIRE 416 304 416 112
FLAG -48 304 0
FLAG 416 304 0
FLAG 560 -64 V_O
SYMBOL voltage -48 208 R0
WINDOW 123 0 0 Left 0
WINDOW 39 0 0 Left 0
SYMATTR InstName V1
SYMATTR Value SINE(0 0.707 100)
SYMBOL res 208 -80 R90
WINDOW 0 0 56 VBottom 2
WINDOW 3 32 56 VTop 2
SYMATTR InstName R1
SYMATTR Value 1k
SYMBOL cap 400 48 R0
SYMATTR InstName C1
SYMATTR Value 1n
TEXT -80 328 Left 2 !.tran 1
