Version 4.1
SHEET 1 880 680
WIRE 192 -176 96 -176
WIRE 416 -176 272 -176
WIRE 560 -176 416 -176
WIRE 416 16 416 -176
WIRE 96 192 96 -176
WIRE 416 272 416 96
FLAG 96 272 0
FLAG 416 272 0
FLAG 560 -176 V_O
SYMBOL voltage 96 176 R0
WINDOW 123 0 0 Left 0
WINDOW 39 0 0 Left 0
SYMATTR InstName V1
SYMATTR Value SINE(0 0.707 10)
SYMBOL ind 288 -192 R90
WINDOW 0 5 56 VBottom 2
WINDOW 3 32 56 VTop 2
SYMATTR InstName L1
SYMATTR Value 1m
SYMBOL res 400 0 R0
SYMATTR InstName R1
SYMATTR Value 1k
TEXT 56 296 Left 2 !.tran 1
